* first line is ignored
x_opamp__Q1 2 3 1 0 3 LM741
L_M741 10 1 0.1



.SUBCKT LM741       1   2  99  50  28
IOS 2 1 20N
R1 1 3 250K
R2 3 2 250K
I1 4 50 100U
R3 5 99 517
R4 6 99 517
Q1 5 2 4 QX
Q2 6 7 4 QX
C4 5 6 60.3614P
I2 99 50 1.6MA
EOS 7 1 POLY(1) 16 49 1E-3 1
R8 99 49 40K
R9 49 50 40K
V2 99 8 1.63
D1 9 8 DX
D2 10 9 DX
V3 10 50 1.63
EH 99 98 99 49 1
G1 98 9 5 6 2.1E-3
R5 98 9 95.493MEG
C3 98 9 333.33P
G3 98 15 9 49 1E-6
R12 98 15 1MEG
C5 98 15 5.3052E-15
G4 98 16 3 49 3.1623E-8
L2 98 17 530.5M
R13 17 16 1K
F6 50 99 POLY(1) V6 450U 1
E1 99 23 99 15 1
R16 24 23 25
D5 26 24 DX
V6 26 22 0.65V
R17 23 25 25
D6 25 27 DX
V7 22 27 0.65V
V5 22 21 0.18V
D4 21 15 DX
V4 20 22 0.18V
D3 15 20 DX
L3 22 28 100P
RL3 22 28 100K
.MODEL DX D(IS=1E-15)
.MODEL QX NPN(BF=625)
.ENDS
.end
Transient analysis(0=V(1))                                                                                    
------------------------------------------------------------------------------------------------------  1.9000
------------------------------------------------------------------------------------------------------  1.8950
------------------------------------------------------------------------------------------------------  1.8900
------------------------------------------------------------------------------------------------------  1.8850
------------------------------------------------------------------------------------------------------  1.8800
------------------------------------------------------------------------------------------------------  1.8750
------------------------------------------------------------------------------------------------------  1.8700
------------------------------------------------------------------------------------------------------  1.8650
------------------------------------------------------------------------------------------------------  1.8600
------------------------------------------------------------------------------------------------------  1.8550
------------------------------------------------------------------------------------------------------  1.8500
------------------------------------------------------------------------------------------------------  1.8450
------------------------------------------------------------------------------------------------------  1.8400
------------------------------------------------------------------------------------------------------  1.8350
------------------------------------------------------------------------------------------------------  1.8300
------------------------------------------------------------------------------------------------------  1.8250
------------------------------------------------------------------------------------------------------  1.8200
******************************************************************************************************  1.8150
------------------------------------------------------------------------------------------------------  1.8100
------------------------------------------------------------------------------------------------------  1.8050
------------------------------------------------------------------------------------------------------  1.8000
0                                                                                                  20m        
                                                                                                              
