* first line is ignored
.model QA2 NPN(bf=123)
Q_T1 1 2 0 QA2
.model DMOD4 D(n=1.9 rs=5)
D_D1 1 2 DMOD4
.model QMOD6 NJF(vto=-2.5)
J_T2 1 2 0 QMOD6
.model QMOD8 NMOS(vto=2.5)
M_T3 1 2 0 0 QMOD8
.model RRMOD2 R (tc1=1.3)
R_R1 1 0 100 RRMOD2
.model D1N4148 D(is=4.7582e-9 n=1.95969 rs=2.14024 cjo=4e-12 vj=0.6 tt=6e-9 m=0.45 bv=100)
.subckt MOD10 a k
D1 a k D1N5819
.ends
.model D1N5819 D(is=4.14809e-7 n=1.04287 rs=0.208896 bv=53.3 ibv=0.0006 cjo=1.44e-10 vj=1.45 m=0.671 xti=2 tt=7.2e-11)
x_D3 1 0 MOD10
.subckt MYDIV2 a x b PARAMS: 
R_R1 a x 500
R_R2 x b 500
.ends
x_X2 1 2 0 MYDIV2 
.model QMOD8V NMOS(vto=3.4)
M_T3V 1 2 0 0 QMOD8V
.end
