warn: Device ammeter A2 is parallel to device ammeter A1 (anode 2, cathode 0), this may cause problems!
error: Problem with nets v_ammeter__a1#branch,v_ammeter__a1#branch (check if capacitors have path to ground)
hint: Net v_ammeter__a1#branch contains: 
hint: If 2 capacitors are in series, their common pin must have path to ground, use e.g. 10G resistor to ground
hint: Unconnected pins of capacitors must be connected to ground, use e.g. 10G resistor to ground
error: Transient analysis timestep too small
hint: stderr doAnalyses: TRAN:  Timestep too small; initial timepoint: cause unrecorded.
error: Unhandled error in the output of ngspice: stderr Warning: Last gmin step failed
error: Unhandled error in the output of ngspice: stderr Warning: Last gmin step failed
error: Unhandled error in the output of ngspice: stderr Supplies reduced to   0.0000% Warning: singular matrix:  check nodes v_ammeter__a1#branch and v_ammeter__a1#branch
error: Unhandled error in the output of ngspice: stderr Warning: gmin step failed
error: Unhandled error in the output of ngspice: stderr Warning: source stepping failed
error: Unhandled error in the output of ngspice: stdout Transient solution failed -
netlist : string[243] = ** netlist_render BEGIN
* battery U1
.subckt sub_battery_U1 a b
 Rs a 1 1
 V0 1 b DC 9
.ends sub_battery_U1
x_U1 1 0 sub_battery_U1
R_R1 1 2 100
* ammeter A1
V_AMMETER__A1 2 0 DC 0
* ammeter A2
V_AMMETER__A2 2 0 DC 0
** netlist_render END
.end
log
  [0]: stdout Doing analysis at TEMP = 27.000000 and TNOM = 27.000000
  [1]: stderr Warning: singular matrix:  check nodes v_ammeter__a1#branch and v_ammeter__a1#branch
  [2]: stderr Note: Starting dynamic gmin stepping
  [3]: stderr Trying gmin =   1.0000E-03 Warning: singular matrix:  check nodes v_ammeter__a1#branch and v_ammeter__a1#branch
  [4]: stderr Warning: Further gmin increment
  [5]: stderr Trying gmin =   5.6234E-03 Warning: singular matrix:  check nodes v_ammeter__a1#branch and v_ammeter__a1#branch
  [6]: stderr Warning: Further gmin increment
  [7]: stderr Trying gmin =   8.6596E-03 Warning: singular matrix:  check nodes v_ammeter__a1#branch and v_ammeter__a1#branch
  [8]: stderr Warning: Further gmin increment
  [9]: stderr Trying gmin =   9.6466E-03 Warning: singular matrix:  check nodes v_ammeter__a1#branch and v_ammeter__a1#branch
  [10]: stderr Warning: Further gmin increment
  [11]: stderr Trying gmin =   9.9105E-03 Warning: singular matrix:  check nodes v_ammeter__a1#branch and v_ammeter__a1#branch
  [12]: stderr Warning: Further gmin increment
  [13]: stderr Trying gmin =   9.9775E-03 Warning: singular matrix:  check nodes v_ammeter__a1#branch and v_ammeter__a1#branch
  [14]: stderr Warning: Further gmin increment
  [15]: stderr Trying gmin =   9.9944E-03 Warning: singular matrix:  check nodes v_ammeter__a1#branch and v_ammeter__a1#branch
  [16]: stderr Warning: Further gmin increment
  [17]: stderr Trying gmin =   9.9986E-03 Warning: singular matrix:  check nodes v_ammeter__a1#branch and v_ammeter__a1#branch
  [18]: stderr Warning: Further gmin increment
  [19]: stderr Trying gmin =   9.9996E-03 Warning: singular matrix:  check nodes v_ammeter__a1#branch and v_ammeter__a1#branch
  [20]: stderr Warning: Last gmin step failed
  [21]: stderr Warning: singular matrix:  check nodes v_ammeter__a1#branch and v_ammeter__a1#branch
  [22]: stderr Warning: Dynamic gmin stepping failed
  [23]: stderr Note: Starting true gmin stepping
  [24]: stderr Trying gmin =   1.0000E-03 Warning: singular matrix:  check nodes v_ammeter__a1#branch and v_ammeter__a1#branch
  [25]: stderr Warning: Further gmin increment
  [26]: stderr Trying gmin =   5.6234E-03 Warning: singular matrix:  check nodes v_ammeter__a1#branch and v_ammeter__a1#branch
  [27]: stderr Warning: Further gmin increment
  [28]: stderr Trying gmin =   8.6596E-03 Warning: singular matrix:  check nodes v_ammeter__a1#branch and v_ammeter__a1#branch
  [29]: stderr Warning: Further gmin increment
  [30]: stderr Trying gmin =   9.6466E-03 Warning: singular matrix:  check nodes v_ammeter__a1#branch and v_ammeter__a1#branch
  [31]: stderr Warning: Further gmin increment
  [32]: stderr Trying gmin =   9.9105E-03 Warning: singular matrix:  check nodes v_ammeter__a1#branch and v_ammeter__a1#branch
  [33]: stderr Warning: Further gmin increment
  [34]: stderr Trying gmin =   9.9775E-03 Warning: singular matrix:  check nodes v_ammeter__a1#branch and v_ammeter__a1#branch
  [35]: stderr Warning: Further gmin increment
  [36]: stderr Trying gmin =   9.9944E-03 Warning: singular matrix:  check nodes v_ammeter__a1#branch and v_ammeter__a1#branch
  [37]: stderr Warning: Further gmin increment
  [38]: stderr Trying gmin =   9.9986E-03 Warning: singular matrix:  check nodes v_ammeter__a1#branch and v_ammeter__a1#branch
  [39]: stderr Warning: Further gmin increment
  [40]: stderr Trying gmin =   9.9996E-03 Warning: singular matrix:  check nodes v_ammeter__a1#branch and v_ammeter__a1#branch
  [41]: stderr Warning: Last gmin step failed
  [42]: stderr Warning: singular matrix:  check nodes v_ammeter__a1#branch and v_ammeter__a1#branch
  [43]: stderr Warning: True gmin stepping failed
  [44]: stderr Note: Starting source stepping
  [45]: stderr Supplies reduced to   0.0000% Warning: singular matrix:  check nodes v_ammeter__a1#branch and v_ammeter__a1#branch
  [46]: stderr Trying gmin =   1.0000E-02 Warning: singular matrix:  check nodes v_ammeter__a1#branch and v_ammeter__a1#branch
  [47]: stderr Warning: gmin step failed
  [48]: stderr Warning: source stepping failed
  [49]: stderr Note: Transient op started
  [50]: stderr Warning: singular matrix:  check nodes v_ammeter__a1#branch and v_ammeter__a1#branch
  [58]: stdout Transient solution failed -
  [59]: stdout Last Node Voltages
  [60]: stdout ------------------
  [61]: stdout Node                                   Last Voltage        Previous Iter
  [62]: stdout ----                                   ------------        -------------
  [63]: stdout 1                                                 0                    0
  [64]: stdout x_u1.1                                            0                    0
  [65]: stdout 2                                                 0                    0
  [66]: stdout v_ammeter__a2#branch                              0                    0
  [67]: stdout v_ammeter__a1#branch                              0                    0
  [68]: stdout v.x_u1.v0#branch                                  0                    9 *
  [69]: stdout No. of Data Rows : 0
  [70]: stderr doAnalyses: TRAN:  Timestep too small; initial timepoint: cause unrecorded.
  [71]: stderr tran simulation(s) aborted
error: ngspice_process_log() found 8 errors
  [parallel_ammeters.ngjs:0:0] in <anonymous>()
    tran().run().chart('I(A1)');
           ^

Stack trace (4 frames):
  [Exception.js:0:0, core.js:0:0] in Exception()
    Internal.buffered_stack_trace(aMessage || "Error");
             ^
  [ngspice_process_log.js:0:0, core.js:0:0] in ngspice_process_log()
    throw new Exception('ngspice_process_log() found ' + errors.length + ' errors');
          ^
  [analysis/tran.js:0:0, core.js:0:0] in Tran.run()
    var err = ngspice_process_log(ngspice_log(), this.ret.netlist);
              ^
  [parallel_ammeters.ngjs:0:0] in <anonymous>()
    tran().run().chart('I(A1)');
           ^

exit(12)
